&share
 wrf_core = 'ARW',
 max_dom = 1,
 start_date = '2015-06-30_00:00:00','2015-06-30_00:00:00',
 end_date   = '2015-10-01_00:00:00','2015-10-01_00:00:00',
 interval_seconds = 21600
 io_form_geogrid = 2,
/

&geogrid
 parent_id         =   1,   1,
 parent_grid_ratio =   1,   3,
 i_parent_start    =   1,  31,
 j_parent_start    =   1,  17,
 e_we              =  74, 112,
 e_sn              =  61,  97,
 !
 !!!!!!!!!!!!!!!!!!!!!!!!!!!! IMPORTANT NOTE !!!!!!!!!!!!!!!!!!!!!!!!!!!!
 ! This namelist is specific for use with the lowest resolution option for
 ! each field in the static geographic tar file.  It is mandatory to use
 ! the below settings for geog_data_res.
 !!!!!!!!!!!!!!!!!!!!!!!!!!!! IMPORTANT NOTE !!!!!!!!!!!!!!!!!!!!!!!!!!!!
 !
 geog_data_res = '2deg+gtopo_10m+usgs_10m+10m+nesdis_greenfrac','2deg+gtopo_10m+usgs_10m+10m+nesdis_greenfrac'
 dx = 50000,
 dy = 50000,
 map_proj = 'lambert',
 ref_lat   =  24.714,
 ref_lon   =  46.675,
 truelat1  =  24.714,
 truelat2  =  24.714,
 stand_lon =  46.675
 geog_data_path = '/home/scottlynn73/WRF/WPS_GEOG/'
/

&ungrib
 out_format = 'WPS',
 prefix = 'FILE',
/

&metgrid
 fg_name = 'FILE'
 io_form_metgrid = 2, 
/


&mod_levs
 press_pa = 201300 , 200100 , 100000 ,
             95000 ,  90000 ,
             85000 ,  80000 ,
             75000 ,  70000 ,
             65000 ,  60000 ,
             55000 ,  50000 ,
             45000 ,  40000 ,
             35000 ,  30000 ,
             25000 ,  20000 ,
             15000 ,  10000 ,
              5000 ,   1000
/

